src/sandbox/input/118_pti_v29.raw
 0, 100.0/RAWD VER 29 EXPORT BY PSAT
IEEE 118 bus test case

     1,'Riversid', 138.00,2,          0.000,          0.000,   1,   1,0.95701,  10.9734,   1
     2,'Pokagon ', 138.00,1,          0.000,          0.000,   1,   1,0.97216,  11.5289,   1
     3,'HickoryC', 138.00,1,          0.000,          0.000,   1,   1,0.96882,  11.8713,   1
     4,'NCarlisl', 138.00,2,          0.000,          0.000,   1,   1,0.99800,  15.6083,   1
     5,'Olive   ', 138.00,1,          0.000,        -40.000,   1,   1,1.00161,  16.0589,   1
     6,'Kankakee', 138.00,2,          0.000,          0.000,   1,   1,0.98540,  13.3785,   1
     7,'JacksonR', 138.00,1,          0.000,          0.000,   1,   1,0.98647,  12.9112,   1
     8,'Olive   ', 345.00,2,          0.000,          0.000,   1,   1,1.01500,  21.0840,   1
     9,'Beguine ', 345.00,1,          0.000,          0.000,   1,   1,1.04292,  28.3381,   1
    10,'Breed   ', 345.00,2,          0.000,          0.000,   1,   1,1.05000,  35.9190,   1
    11,'SouthBen', 138.00,1,          0.000,          0.000,   1,   1,0.98491,  13.0369,   1
    12,'TwnBranc', 138.00,2,          0.000,          0.000,   1,   1,0.99000,  12.5148,   1
    13,'Concord ', 138.00,1,          0.000,          0.000,   1,   1,0.96750,  11.6684,   1
    14,'GoshenJc', 138.00,1,          0.000,          0.000,   1,   1,0.98283,  11.8084,   1
    15,'FortWayn', 138.00,2,          0.000,          0.000,   1,   1,0.96715,  11.5426,   1
    16,'N. E.   ', 138.00,1,          0.000,          0.000,   1,   1,0.98313,  12.2224,   1
    17,'Sorenson', 138.00,1,          0.000,          0.000,   1,   1,0.99270,  14.0560,   1
    18,'McKinley', 138.00,2,          0.000,          0.000,   1,   1,0.96345,  11.9272,   1
    19,'Lincoln ', 138.00,2,          0.000,          0.000,   1,   1,0.96006,  11.3656,   1
    20,'Adams   ', 138.00,1,          0.000,          0.000,   1,   1,0.95567,  12.2323,   1
    21,'Jay     ', 138.00,1,          0.000,         10.000,   1,   1,0.95695,  13.8135,   1
    22,'Randolph', 138.00,1,          0.000,          0.000,   1,   1,0.96881,  16.3593,   1
    23,'CollgeCn', 138.00,1,          0.000,          0.000,   1,   1,1.00016,  21.2575,   1
    24,'Trenton ', 138.00,2,          0.000,          0.000,   1,   1,0.99200,  21.1300,   1
    25,'TannersC', 138.00,2,          0.000,          0.000,   1,   1,1.05000,  28.2075,   1
    26,'TannersC', 345.00,2,          0.000,          0.000,   1,   1,1.01500,  29.9945,   1
    27,'Madison ', 138.00,2,          0.000,          0.000,   1,   1,0.96800,  15.6343,   1
    28,'Mullin  ', 138.00,1,          0.000,          0.000,   1,   1,0.96157,  13.9103,   1
    29,'Grant   ', 138.00,1,          0.000,          0.000,   1,   1,0.96322,  12.9186,   1
    30,'Sorenson', 345.00,1,          0.000,          0.000,   1,   1,0.98487,  19.0821,   1
    31,'DeerCree', 138.00,2,          0.000,          0.000,   1,   1,0.96700,  13.0358,   1
    32,'Delaware', 138.00,2,          0.000,          0.000,   1,   1,0.96704,  15.0260,   1
    33,'Haviland', 138.00,1,          0.000,          0.000,   1,   1,0.97090,  10.9049,   1
    34,'Rockhill', 138.00,2,          0.000,         14.000,   1,   1,0.98827,  11.5285,   1
    35,'West Lim', 138.00,1,          0.000,          0.000,   1,   1,0.98307,  11.1044,   1
    36,'Sterling', 138.00,2,          0.000,          0.000,   1,   1,0.98250,  11.1071,   1
    37,'East Lim', 138.00,1,          0.000,        -25.000,   1,   1,0.99385,  11.9991,   1
    38,'East Lim', 345.00,1,          0.000,          0.000,   1,   1,0.96272,  17.1226,   1
    39,'NwLibert', 138.00,1,          0.000,          0.000,   1,   1,0.97116,   8.6739,   1
    40,'West End', 138.00,2,          0.000,          0.000,   1,   1,0.97000,   7.6234,   1
    41,'S. Tiffi', 138.00,1,          0.000,          0.000,   1,   1,0.96683,   7.1845,   1
    42,'Howard  ', 138.00,2,          0.000,          0.000,   1,   1,0.98500,   8.7996,   1
    43,'S. Kento', 138.00,1,          0.000,          0.000,   1,   1,0.98019,  11.5242,   1
    44,'WMtVerno', 138.00,1,          0.000,         10.000,   1,   1,0.98566,  14.0657,   1
    45,'N. Newar', 138.00,1,          0.000,         10.000,   1,   1,0.98693,  15.9175,   1
    46,'W.Lancst', 138.00,2,          0.000,         10.000,   1,   1,1.00500,  18.7340,   1
    47,'Crooksvi', 138.00,1,          0.000,          0.000,   1,   1,1.01711,  20.9497,   1
    48,'Zanesvil', 138.00,1,          0.000,         15.000,   1,   1,1.02063,  20.1944,   1
    49,'Philo   ', 138.00,2,          0.000,          0.000,   1,   1,1.02500,  21.2023,   1
    50,'W.Cambrd', 138.00,1,          0.000,          0.000,   1,   1,1.00155,  19.2468,   1
    51,'Newcmrst', 138.00,1,          0.000,          0.000,   1,   1,0.96760,  16.7324,   1
    52,'SCoshoct', 138.00,1,          0.000,          0.000,   1,   1,0.95747,  15.8046,   1
    53,'Wooster ', 138.00,1,          0.000,          0.000,   1,   1,0.94628,  14.8964,   1
    54,'Torrey  ', 138.00,2,          0.000,          0.000,   1,   1,0.95500,  15.8562,   1
    55,'Wagenhal', 138.00,2,          0.000,          0.000,   1,   1,0.95247,  15.5621,   1
    56,'Sunnysid', 138.00,2,          0.000,          0.000,   1,   1,0.95537,  15.7884,   1
    57,'WNwPhila', 138.00,1,          0.000,          0.000,   1,   1,0.97165,  16.8724,   1
    58,'WNwPhila', 138.00,1,          0.000,          0.000,   1,   1,0.96006,  16.0353,   1
    59,'Tidd    ', 138.00,2,          0.000,          0.000,   1,   1,0.98500,  19.1937,   1
    60,'SW Kamme', 138.00,1,          0.000,          0.000,   1,   1,0.99309,  23.1046,   1
    61,'Kammer  ', 138.00,2,          0.000,          0.000,   1,   1,0.99500,  23.9996,   1
    62,'Natrium ', 138.00,2,          0.000,          0.000,   1,   1,0.99772,  23.4140,   1
    63,'Tidd    ', 345.00,1,          0.000,          0.000,   1,   1,0.96857,  22.6664,   1
    64,'Kammer  ', 345.00,1,          0.000,          0.000,   1,   1,0.98363,  24.4834,   1
    65,'Muskingu', 345.00,2,          0.000,          0.000,   1,   1,1.00500,  27.6973,   1
    66,'Muskingu', 138.00,2,          0.000,          0.000,   1,   1,1.05000,  27.6029,   1
    67,'Summerfl', 138.00,1,          0.000,          0.000,   1,   1,1.01951,  24.9021,   1
    68,'Sporn   ', 345.00,1,          0.000,          0.000,   1,   1,1.00325,  27.5854,   1
    69,'Sporn   ', 138.00,3,          0.000,          0.000,   1,   1,1.03500,  30.0000,   1
    70,'Portsmot', 138.00,2,          0.000,          0.000,   1,   1,0.98112,  22.6441,   1
    71,'NPortsmt', 138.00,1,          0.000,          0.000,   1,   1,0.98538,  22.2137,   1
    72,'Hillsbor', 138.00,2,          0.000,          0.000,   1,   1,0.98000,  21.1080,   1
    73,'Sargents', 138.00,2,          0.000,          0.000,   1,   1,0.99100,  21.9856,   1
    74,'Bellefon', 138.00,2,          0.000,         12.000,   1,   1,0.95788,  21.6435,   1
    75,'Sth Poin', 138.00,1,          0.000,          0.000,   1,   1,0.96570,  22.9351,   1
    76,'Darrah  ', 138.00,2,          0.000,         20.000,   1,   1,0.93751,  21.8560,   1
    77,'Turner  ', 138.00,2,          0.000,          0.000,   1,   1,1.00377,  26.7853,   1
    78,'Chemical', 138.00,1,          0.000,          0.000,   1,   1,1.00143,  26.4745,   1
    79,'CapitolH', 138.00,1,          0.000,         20.000,   1,   1,1.00773,  26.7656,   1
    80,'Cabin Cr', 138.00,2,          0.000,          0.000,   1,   1,1.04000,  28.9889,   1
    81,'Kanawha ', 345.00,1,          0.000,          0.000,   1,   1,0.99681,  28.1367,   1
    82,'Logan   ', 138.00,1,          0.000,         20.000,   1,   1,0.98871,  27.2731,   1
    83,'Sprigg  ', 138.00,1,          0.000,         10.000,   1,   1,0.98531,  28.4535,   1
    84,'BetsyLay', 138.00,1,          0.000,          0.000,   1,   1,0.98180,  30.9622,   1
    85,'BeaverCr', 138.00,2,          0.000,          0.000,   1,   1,0.98763,  32.5005,   1
    86,'Hazard  ', 138.00,1,          0.000,          0.000,   1,   1,0.98837,  31.1532,   1
    87,'Pinevill', 138.00,2,          0.000,          0.000,   1,   1,1.01500,  31.4253,   1
    88,'Fremont ', 138.00,1,          0.000,          0.000,   1,   1,0.98853,  35.6402,   1
    89,'ClinchRv', 138.00,2,          0.000,          0.000,   1,   1,1.00500,  39.7051,   1
    90,'Holston ', 138.00,2,          0.000,          0.000,   1,   1,0.98500,  33.3117,   1
    91,'HolstonT', 138.00,2,          0.000,          0.000,   1,   1,0.98000,  33.3333,   1
    92,'Saltvill', 138.00,2,          0.000,          0.000,   1,   1,0.99333,  33.8171,   1
    93,'Tazewell', 138.00,1,          0.000,          0.000,   1,   1,0.98758,  30.8191,   1
    94,'Switchba', 138.00,1,          0.000,          0.000,   1,   1,0.99090,  28.6740,   1
    95,'Caldwell', 138.00,1,          0.000,          0.000,   1,   1,0.98116,  27.7052,   1
    96,'Baileysv', 138.00,1,          0.000,          0.000,   1,   1,0.99280,  27.5409,   1
    97,'Sundial ', 138.00,1,          0.000,          0.000,   1,   1,1.01143,  27.9145,   1
    98,'Bradley ', 138.00,1,          0.000,          0.000,   1,   1,1.02351,  27.4364,   1
    99,'Hinton  ', 138.00,2,          0.000,          0.000,   1,   1,1.01000,  27.0738,   1
   100,'Glen Lyn', 138.00,2,          0.000,          0.000,   1,   1,1.01700,  28.0692,   1
   101,'Wythe   ', 138.00,1,          0.000,          0.000,   1,   1,0.99291,  29.6332,   1
   102,'Smyth   ', 138.00,1,          0.000,          0.000,   1,   1,0.99187,  32.3202,   1
   103,'Claytor ', 138.00,2,          0.000,          0.000,   1,   1,1.00060,  24.4761,   1
   104,'Hancock ', 138.00,2,          0.000,          0.000,   1,   1,0.97020,  21.7372,   1
   105,'Roanoke ', 138.00,2,          0.000,         20.000,   1,   1,0.96709,  20.5859,   1
   106,'Cloverdl', 138.00,1,          0.000,          0.000,   1,   1,0.96251,  20.3463,   1
   107,'Reusens ', 138.00,2,          0.000,          6.000,   1,   1,0.95200,  17.5708,   1
   108,'Blaine  ', 138.00,1,          0.000,          0.000,   1,   1,0.96703,  19.4112,   1
   109,'Franklin', 138.00,1,          0.000,          0.000,   1,   1,0.96731,  18.9680,   1
   110,'Fieldale', 138.00,2,          0.000,          6.000,   1,   1,0.97188,  18.1435,   1
   111,'Dan Rive', 138.00,2,          0.000,          0.000,   1,   1,0.98000,  19.7714,   1
   112,'Danville', 138.00,2,          0.000,          0.000,   1,   1,0.97500,  15.0146,   1
   113,'DeerCk T', 138.00,2,          0.000,          0.000,   1,   1,0.99300,  14.0145,   1
   114,'W Medfor', 138.00,1,          0.000,          0.000,   1,   1,0.96245,  14.7208,   1
   115,'Medford ', 138.00,1,          0.000,          0.000,   1,   1,0.96209,  14.7172,   1
   116,'Kyger Cr', 345.00,2,          0.000,          0.000,   1,   1,1.00500,  27.1504,   1
   117,'Corey   ', 138.00,1,          0.000,          0.000,   1,   1,0.97382,  10.9738,   1
   118,'WHuntngd', 138.00,1,          0.000,          0.000,   1,   1,0.94597,  21.9688,   1
0 / END OF BUS DATA, BEGIN LOAD DATA
     1,'BL',1,   1,   1,    51.000,    27.000,     0.000,     0.000,     0.000,     0.000,   1
     2,'BL',1,   1,   1,    20.000,     9.000,     0.000,     0.000,     0.000,     0.000,   1
     3,'BL',1,   1,   1,    39.000,    10.000,     0.000,     0.000,     0.000,     0.000,   1
     4,'BL',1,   1,   1,    30.000,    12.000,     0.000,     0.000,     0.000,     0.000,   1
     6,'BL',1,   1,   1,    52.000,    22.000,     0.000,     0.000,     0.000,     0.000,   1
     7,'BL',1,   1,   1,    19.000,     2.000,     0.000,     0.000,     0.000,     0.000,   1
    11,'BL',1,   1,   1,    70.000,    23.000,     0.000,     0.000,     0.000,     0.000,   1
    12,'BL',1,   1,   1,    47.000,    10.000,     0.000,     0.000,     0.000,     0.000,   1
    13,'BL',1,   1,   1,    34.000,    16.000,     0.000,     0.000,     0.000,     0.000,   1
    14,'BL',1,   1,   1,    14.000,     1.000,     0.000,     0.000,     0.000,     0.000,   1
    15,'BL',1,   1,   1,    90.000,    30.000,     0.000,     0.000,     0.000,     0.000,   1
    16,'BL',1,   1,   1,    25.000,    10.000,     0.000,     0.000,     0.000,     0.000,   1
    17,'BL',1,   1,   1,    11.000,     3.000,     0.000,     0.000,     0.000,     0.000,   1
    18,'BL',1,   1,   1,    60.000,    34.000,     0.000,     0.000,     0.000,     0.000,   1
    19,'BL',1,   1,   1,    45.000,    25.000,     0.000,     0.000,     0.000,     0.000,   1
    20,'BL',1,   1,   1,    18.000,     3.000,     0.000,     0.000,     0.000,     0.000,   1
    21,'BL',1,   1,   1,    14.000,     8.000,     0.000,     0.000,     0.000,     0.000,   1
    22,'BL',1,   1,   1,    10.000,     5.000,     0.000,     0.000,     0.000,     0.000,   1
    23,'BL',1,   1,   1,     7.000,     3.000,     0.000,     0.000,     0.000,     0.000,   1
    27,'BL',1,   1,   1,    62.000,    13.000,     0.000,     0.000,     0.000,     0.000,   1
    28,'BL',1,   1,   1,    17.000,     7.000,     0.000,     0.000,     0.000,     0.000,   1
    29,'BL',1,   1,   1,    24.000,     4.000,     0.000,     0.000,     0.000,     0.000,   1
    31,'BL',1,   1,   1,    43.000,    27.000,     0.000,     0.000,     0.000,     0.000,   1
    32,'BL',1,   1,   1,    59.000,    23.000,     0.000,     0.000,     0.000,     0.000,   1
    33,'BL',1,   1,   1,    23.000,     9.000,     0.000,     0.000,     0.000,     0.000,   1
    34,'BL',1,   1,   1,    59.000,    26.000,     0.000,     0.000,     0.000,     0.000,   1
    35,'BL',1,   1,   1,    33.000,     9.000,     0.000,     0.000,     0.000,     0.000,   1
    36,'BL',1,   1,   1,    31.000,    17.000,     0.000,     0.000,     0.000,     0.000,   1
    39,'BL',1,   1,   1,    27.000,    11.000,     0.000,     0.000,     0.000,     0.000,   1
    40,'BL',1,   1,   1,    20.000,    23.000,     0.000,     0.000,     0.000,     0.000,   1
    41,'BL',1,   1,   1,    37.000,    10.000,     0.000,     0.000,     0.000,     0.000,   1
    42,'BL',1,   1,   1,    37.000,    23.000,     0.000,     0.000,     0.000,     0.000,   1
    43,'BL',1,   1,   1,    18.000,     7.000,     0.000,     0.000,     0.000,     0.000,   1
    44,'BL',1,   1,   1,    16.000,     8.000,     0.000,     0.000,     0.000,     0.000,   1
    45,'BL',1,   1,   1,    53.000,    22.000,     0.000,     0.000,     0.000,     0.000,   1
    46,'BL',1,   1,   1,    28.000,    10.000,     0.000,     0.000,     0.000,     0.000,   1
    47,'BL',1,   1,   1,    34.000,     0.000,     0.000,     0.000,     0.000,     0.000,   1
    48,'BL',1,   1,   1,    20.000,    11.000,     0.000,     0.000,     0.000,     0.000,   1
    49,'BL',1,   1,   1,    87.000,    30.000,     0.000,     0.000,     0.000,     0.000,   1
    50,'BL',1,   1,   1,    17.000,     4.000,     0.000,     0.000,     0.000,     0.000,   1
    51,'BL',1,   1,   1,    17.000,     8.000,     0.000,     0.000,     0.000,     0.000,   1
    52,'BL',1,   1,   1,    18.000,     5.000,     0.000,     0.000,     0.000,     0.000,   1
    53,'BL',1,   1,   1,    23.000,    11.000,     0.000,     0.000,     0.000,     0.000,   1
    54,'BL',1,   1,   1,   113.000,    32.000,     0.000,     0.000,     0.000,     0.000,   1
    55,'BL',1,   1,   1,    63.000,    22.000,     0.000,     0.000,     0.000,     0.000,   1
    56,'BL',1,   1,   1,    84.000,    18.000,     0.000,     0.000,     0.000,     0.000,   1
    57,'BL',1,   1,   1,    12.000,     3.000,     0.000,     0.000,     0.000,     0.000,   1
    58,'BL',1,   1,   1,    12.000,     3.000,     0.000,     0.000,     0.000,     0.000,   1
    59,'BL',1,   1,   1,   277.000,   113.000,     0.000,     0.000,     0.000,     0.000,   1
    60,'BL',1,   1,   1,    78.000,     3.000,     0.000,     0.000,     0.000,     0.000,   1
    62,'BL',1,   1,   1,    77.000,    14.000,     0.000,     0.000,     0.000,     0.000,   1
    66,'BL',1,   1,   1,    39.000,    18.000,     0.000,     0.000,     0.000,     0.000,   1
    67,'BL',1,   1,   1,    28.000,     7.000,     0.000,     0.000,     0.000,     0.000,   1
    70,'BL',1,   1,   1,    66.000,    20.000,     0.000,     0.000,     0.000,     0.000,   1
    74,'BL',1,   1,   1,    68.000,    27.000,     0.000,     0.000,     0.000,     0.000,   1
    75,'BL',1,   1,   1,    47.000,    11.000,     0.000,     0.000,     0.000,     0.000,   1
    76,'BL',1,   1,   1,    68.000,    36.000,     0.000,     0.000,     0.000,     0.000,   1
    77,'BL',1,   1,   1,    61.000,    28.000,     0.000,     0.000,     0.000,     0.000,   1
    78,'BL',1,   1,   1,    71.000,    26.000,     0.000,     0.000,     0.000,     0.000,   1
    79,'BL',1,   1,   1,    39.000,    32.000,     0.000,     0.000,     0.000,     0.000,   1
    80,'BL',1,   1,   1,   130.000,    26.000,     0.000,     0.000,     0.000,     0.000,   1
    82,'BL',1,   1,   1,    54.000,    27.000,     0.000,     0.000,     0.000,     0.000,   1
    83,'BL',1,   1,   1,    20.000,    10.000,     0.000,     0.000,     0.000,     0.000,   1
    84,'BL',1,   1,   1,    11.000,     7.000,     0.000,     0.000,     0.000,     0.000,   1
    85,'BL',1,   1,   1,    24.000,    15.000,     0.000,     0.000,     0.000,     0.000,   1
    86,'BL',1,   1,   1,    21.000,    10.000,     0.000,     0.000,     0.000,     0.000,   1
    88,'BL',1,   1,   1,    48.000,    10.000,     0.000,     0.000,     0.000,     0.000,   1
    90,'BL',1,   1,   1,    78.000,    42.000,     0.000,     0.000,     0.000,     0.000,   1
    92,'BL',1,   1,   1,    65.000,    10.000,     0.000,     0.000,     0.000,     0.000,   1
    93,'BL',1,   1,   1,    12.000,     7.000,     0.000,     0.000,     0.000,     0.000,   1
    94,'BL',1,   1,   1,    30.000,    16.000,     0.000,     0.000,     0.000,     0.000,   1
    95,'BL',1,   1,   1,    42.000,    31.000,     0.000,     0.000,     0.000,     0.000,   1
    96,'BL',1,   1,   1,    38.000,    15.000,     0.000,     0.000,     0.000,     0.000,   1
    97,'BL',1,   1,   1,    15.000,     9.000,     0.000,     0.000,     0.000,     0.000,   1
    98,'BL',1,   1,   1,    34.000,     8.000,     0.000,     0.000,     0.000,     0.000,   1
   100,'BL',1,   1,   1,    37.000,    18.000,     0.000,     0.000,     0.000,     0.000,   1
   101,'BL',1,   1,   1,    22.000,    15.000,     0.000,     0.000,     0.000,     0.000,   1
   102,'BL',1,   1,   1,     5.000,     3.000,     0.000,     0.000,     0.000,     0.000,   1
   103,'BL',1,   1,   1,    23.000,    16.000,     0.000,     0.000,     0.000,     0.000,   1
   104,'BL',1,   1,   1,    38.000,    25.000,     0.000,     0.000,     0.000,     0.000,   1
   105,'BL',1,   1,   1,    31.000,    26.000,     0.000,     0.000,     0.000,     0.000,   1
   106,'BL',1,   1,   1,    43.000,    16.000,     0.000,     0.000,     0.000,     0.000,   1
   107,'BL',1,   1,   1,    28.000,    12.000,     0.000,     0.000,     0.000,     0.000,   1
   108,'BL',1,   1,   1,     2.000,     1.000,     0.000,     0.000,     0.000,     0.000,   1
   109,'BL',1,   1,   1,     8.000,     3.000,     0.000,     0.000,     0.000,     0.000,   1
   110,'BL',1,   1,   1,    39.000,    30.000,     0.000,     0.000,     0.000,     0.000,   1
   112,'BL',1,   1,   1,    25.000,    13.000,     0.000,     0.000,     0.000,     0.000,   1
   114,'BL',1,   1,   1,     8.000,     3.000,     0.000,     0.000,     0.000,     0.000,   1
   115,'BL',1,   1,   1,    22.000,     7.000,     0.000,     0.000,     0.000,     0.000,   1
   117,'BL',1,   1,   1,    20.000,     8.000,     0.000,     0.000,     0.000,     0.000,   1
   118,'BL',1,   1,   1,    33.000,    15.000,     0.000,     0.000,     0.000,     0.000,   1
0 / END OF LOAD DATA, BEGIN GENERATOR DATA
     1,'1 ',     0.00,     0.00,    15.00,    -5.00,0.95500,     0,   100.00,      0.00000,      0.20000,      0.00000,      0.00000,1.00000,0,  100.0,    10.00,     0.00,   1,1.0000,,,,,,,
     4,'1 ',    -9.00,   -10.06,   300.00,  -300.00,0.99800,     0,   100.00,      0.00000,      0.20000,      0.00000,      0.00000,1.00000,1,  100.0,    20.00,     0.00,   1,1.0000,,,,,,,
     6,'1 ',     0.00,     0.00,    50.00,   -13.00,0.99000,     0,   100.00,      0.00000,      0.20000,      0.00000,      0.00000,1.00000,0,  100.0,   100.00,     0.00,   1,1.0000,,,,,,,
     8,'1 ',   -28.00,    65.53,   300.00,  -300.00,1.01500,     0,   100.00,      0.00000,      0.20000,      0.00000,      0.00000,1.00000,1,  100.0,    50.00,     0.00,   1,1.0000,,,,,,,
    10,'1 ',   450.00,   -51.05,   200.00,  -147.00,1.05000,     0,   100.00,      0.00000,      0.20000,      0.00000,      0.00000,1.00000,1,  100.0,   650.00,     0.00,   1,1.0000,,,,,,,
    12,'1 ',    85.00,   100.60,   120.00,   -35.00,0.99000,     0,   100.00,      0.00000,      0.20000,      0.00000,      0.00000,1.00000,1,  100.0,   120.00,     0.00,   1,1.0000,,,,,,,
    15,'1 ',     0.00,     0.00,    30.00,   -10.00,0.97000,     0,   100.00,      0.00000,      0.20000,      0.00000,      0.00000,1.00000,0,  100.0,    30.00,     0.00,   1,1.0000,,,,,,,
    18,'1 ',     0.00,     0.00,    50.00,   -16.00,0.97300,     0,   100.00,      0.00000,      0.20000,      0.00000,      0.00000,1.00000,0,  100.0,    50.00,     0.00,   1,1.0000,,,,,,,
    19,'1 ',     0.00,     0.00,    24.00,    -8.00,0.96200,     0,   100.00,      0.00000,      0.20000,      0.00000,      0.00000,1.00000,0,  100.0,    24.00,     0.00,   1,1.0000,,,,,,,
    24,'1 ',   -13.00,   -15.61,   300.00,  -300.00,0.99200,     0,   100.00,      0.00000,      0.20000,      0.00000,      0.00000,1.00000,1,  100.0,   300.00,     0.00,   1,1.0000,,,,,,,
    25,'1 ',   220.00,    49.14,   140.00,   -47.00,1.05000,     0,   100.00,      0.00000,      0.20000,      0.00000,      0.00000,1.00000,1,  100.0,   220.00,     0.00,   1,1.0000,,,,,,,
    26,'1 ',   314.00,    10.65,  1000.00, -1000.00,1.01500,     0,   100.00,      0.00000,      0.20000,      0.00000,      0.00000,1.00000,1,  100.0,  1000.00,     0.00,   1,1.0000,,,,,,,
    27,'1 ',    -9.00,    -3.87,   300.00,  -300.00,0.96800,     0,   100.00,      0.00000,      0.20000,      0.00000,      0.00000,1.00000,1,  100.0,   300.00,     0.00,   1,1.0000,,,,,,,
    31,'1 ',     7.00,    30.05,   300.00,  -300.00,0.96700,     0,   100.00,      0.00000,      0.20000,      0.00000,      0.00000,1.00000,1,  100.0,   300.00,     0.00,   1,1.0000,,,,,,,
    32,'1 ',     0.00,     0.00,    42.00,   -14.00,0.96300,     0,   100.00,      0.00000,      0.20000,      0.00000,      0.00000,1.00000,0,  100.0,    42.00,     0.00,   1,1.0000,,,,,,,
    34,'1 ',     0.00,     0.00,    24.00,    -8.00,0.98400,     0,   100.00,      0.00000,      0.20000,      0.00000,      0.00000,1.00000,0,  100.0,    24.00,     0.00,   1,1.0000,,,,,,,
    36,'1 ',     0.00,     0.00,    24.00,    -8.00,0.98000,     0,   100.00,      0.00000,      0.20000,      0.00000,      0.00000,1.00000,0,  100.0,    24.00,     0.00,   1,1.0000,,,,,,,
    40,'1 ',   -46.00,    24.61,   300.00,  -300.00,0.97000,     0,   100.00,      0.00000,      0.20000,      0.00000,      0.00000,1.00000,1,  100.0,   300.00,     0.00,   1,1.0000,,,,,,,
    42,'1 ',   -59.00,    41.13,   300.00,  -300.00,0.98500,     0,   100.00,      0.00000,      0.20000,      0.00000,      0.00000,1.00000,1,  100.0,   300.00,     0.00,   1,1.0000,,,,,,,
    46,'1 ',    19.00,    -5.47,   100.00,  -100.00,1.00500,     0,   100.00,      0.00000,      0.20000,      0.00000,      0.00000,1.00000,1,  100.0,   100.00,     0.00,   1,1.0000,,,,,,,
    49,'1 ',   204.00,   113.73,   210.00,   -85.00,1.02500,     0,   100.00,      0.00000,      0.20000,      0.00000,      0.00000,1.00000,1,  100.0,   210.00,     0.00,   1,1.0000,,,,,,,
    54,'1 ',    48.00,   -11.12,   300.00,  -300.00,0.95500,     0,   100.00,      0.00000,      0.20000,      0.00000,      0.00000,1.00000,1,  100.0,   300.00,     0.00,   1,1.0000,,,,,,,
    55,'1 ',     0.00,     0.00,    23.00,    -8.00,0.95200,     0,   100.00,      0.00000,      0.20000,      0.00000,      0.00000,1.00000,0,  100.0,    23.00,     0.00,   1,1.0000,,,,,,,
    56,'1 ',     0.00,     0.00,    15.00,    -8.00,0.95400,     0,   100.00,      0.00000,      0.20000,      0.00000,      0.00000,1.00000,0,  100.0,    15.00,     0.00,   1,1.0000,,,,,,,
    59,'1 ',   155.00,    88.11,   180.00,   -60.00,0.98500,     0,   100.00,      0.00000,      0.20000,      0.00000,      0.00000,1.00000,1,  100.0,   180.00,     0.00,   1,1.0000,,,,,,,
    61,'1 ',   160.00,   -38.79,   300.00,  -100.00,0.99500,     0,   100.00,      0.00000,      0.20000,      0.00000,      0.00000,1.00000,1,  100.0,   300.00,     0.00,   1,1.0000,,,,,,,
    62,'1 ',     0.00,     0.00,    20.00,   -20.00,0.99800,     0,   100.00,      0.00000,      0.20000,      0.00000,      0.00000,1.00000,0,  100.0,    20.00,     0.00,   1,1.0000,,,,,,,
    65,'1 ',   391.00,    80.27,   200.00,   -67.00,1.00500,     0,   100.00,      0.00000,      0.20000,      0.00000,      0.00000,1.00000,1,  100.0,   450.00,     0.00,   1,1.0000,,,,,,,
    66,'1 ',   392.00,    -1.54,   200.00,   -67.00,1.05000,     0,   100.00,      0.00000,      0.20000,      0.00000,      0.00000,1.00000,1,  100.0,   450.00,     0.00,   1,1.0000,,,,,,,
    69,'1 ',   512.60,   -76.28,   300.00,  -300.00,1.03500,     0,   100.00,      0.00000,      0.20000,      0.00000,      0.00000,1.00000,1,  100.0,   550.40,     0.00,   1,1.0000,,,,,,,
    70,'1 ',     0.00,     0.00,    32.00,   -10.00,0.98400,     0,   100.00,      0.00000,      0.20000,      0.00000,      0.00000,1.00000,0,  100.0,    32.00,     0.00,   1,1.0000,,,,,,,
    72,'1 ',   -12.00,   -10.33,   100.00,  -100.00,0.98000,     0,   100.00,      0.00000,      0.20000,      0.00000,      0.00000,1.00000,1,  100.0,   100.00,     0.00,   1,1.0000,,,,,,,
    73,'1 ',    -6.00,    12.85,   100.00,  -100.00,0.99100,     0,   100.00,      0.00000,      0.20000,      0.00000,      0.00000,1.00000,1,  100.0,   100.00,     0.00,   1,1.0000,,,,,,,
    74,'1 ',     0.00,     0.00,     9.00,    -6.00,0.95800,     0,   100.00,      0.00000,      0.20000,      0.00000,      0.00000,1.00000,0,  100.0,     9.00,     0.00,   1,1.0000,,,,,,,
    76,'1 ',     0.00,     0.00,    23.00,    -8.00,0.94300,     0,   100.00,      0.00000,      0.20000,      0.00000,      0.00000,1.00000,0,  100.0,    23.00,     0.00,   1,1.0000,,,,,,,
    77,'1 ',     0.00,     0.00,    70.00,   -20.00,1.00600,     0,   100.00,      0.00000,      0.20000,      0.00000,      0.00000,1.00000,0,  100.0,    70.00,     0.00,   1,1.0000,,,,,,,
    80,'1 ',   477.00,   114.39,   280.00,  -165.00,1.04000,     0,   100.00,      0.00000,      0.20000,      0.00000,      0.00000,1.00000,1,  100.0,   550.00,     0.00,   1,1.0000,,,,,,,
    85,'1 ',     0.00,     0.00,    23.00,    -8.00,0.98500,     0,   100.00,      0.00000,      0.20000,      0.00000,      0.00000,1.00000,0,  100.0,    23.00,     0.00,   1,1.0000,,,,,,,
    87,'1 ',     4.00,    10.20,  1000.00,  -100.00,1.01500,     0,   100.00,      0.00000,      0.20000,      0.00000,      0.00000,1.00000,1,  100.0,  1000.00,     0.00,   1,1.0000,,,,,,,
    89,'1 ',   607.00,   -16.75,   300.00,  -210.00,1.00500,     0,   100.00,      0.00000,      0.20000,      0.00000,      0.00000,1.00000,1,  100.0,  1000.00,     0.00,   1,1.0000,,,,,,,
    90,'1 ',   -85.00,    59.08,   300.00,  -300.00,0.98500,     0,   100.00,      0.00000,      0.20000,      0.00000,      0.00000,1.00000,1,  100.0,   300.00,     0.00,   1,1.0000,,,,,,,
    91,'1 ',   -10.00,   -15.66,   100.00,  -100.00,0.98000,     0,   100.00,      0.00000,      0.20000,      0.00000,      0.00000,1.00000,1,  100.0,   100.00,     0.00,   1,1.0000,,,,,,,
    92,'1 ',     0.00,     0.00,     9.00,    -3.00,0.99000,     0,   100.00,      0.00000,      0.20000,      0.00000,      0.00000,1.00000,0,  100.0,     9.00,     0.00,   1,1.0000,,,,,,,
    99,'1 ',   -42.00,   -17.54,   100.00,  -100.00,1.01000,     0,   100.00,      0.00000,      0.20000,      0.00000,      0.00000,1.00000,1,  100.0,   100.00,     0.00,   1,1.0000,,,,,,,
   100,'1 ',   252.00,   107.49,   155.00,   -50.00,1.01700,     0,   100.00,      0.00000,      0.20000,      0.00000,      0.00000,1.00000,1,  100.0,   300.00,     0.00,   1,1.0000,,,,,,,
   103,'1 ',    40.00,    40.00,    40.00,   -15.00,1.01000,     0,   100.00,      0.00000,      0.20000,      0.00000,      0.00000,1.00000,1,  100.0,    40.00,     0.00,   1,1.0000,,,,,,,
   104,'1 ',     0.00,     0.00,    23.00,    -8.00,0.97100,     0,   100.00,      0.00000,      0.20000,      0.00000,      0.00000,1.00000,0,  100.0,    23.00,     0.00,   1,1.0000,,,,,,,
   105,'1 ',     0.00,     0.00,    23.00,    -8.00,0.96500,     0,   100.00,      0.00000,      0.20000,      0.00000,      0.00000,1.00000,0,  100.0,    23.00,     0.00,   1,1.0000,,,,,,,
   107,'1 ',   -22.00,     4.73,   200.00,  -200.00,0.95200,     0,   100.00,      0.00000,      0.20000,      0.00000,      0.00000,1.00000,1,  100.0,   200.00,     0.00,   1,1.0000,,,,,,,
   110,'1 ',     0.00,     0.00,    23.00,    -8.00,0.97300,     0,   100.00,      0.00000,      0.20000,      0.00000,      0.00000,1.00000,0,  100.0,    23.00,     0.00,   1,1.0000,,,,,,,
   111,'1 ',    36.00,    -0.40,  1000.00,  -100.00,0.98000,     0,   100.00,      0.00000,      0.20000,      0.00000,      0.00000,1.00000,1,  100.0,  1000.00,     0.00,   1,1.0000,,,,,,,
   112,'1 ',   -43.00,    43.26,  1000.00,  -100.00,0.97500,     0,   100.00,      0.00000,      0.20000,      0.00000,      0.00000,1.00000,1,  100.0,  1000.00,     0.00,   1,1.0000,,,,,,,
   113,'1 ',    -6.00,    12.65,   200.00,  -100.00,0.99300,     0,   100.00,      0.00000,      0.20000,      0.00000,      0.00000,1.00000,1,  100.0,   200.00,     0.00,   1,1.0000,,,,,,,
   116,'1 ',  -184.00,    51.31,  1000.00, -1000.00,1.00500,     0,   100.00,      0.00000,      0.20000,      0.00000,      0.00000,1.00000,1,  100.0,  1000.00,     0.00,   1,1.0000,,,,,,,
 0 / END OF GENERATOR DATA, BEGIN BRANCH DATA
     1,      2,'1 ',    0.30300E-01,    0.99900E-01,    0.25400E-01,  100.00,  110.00,    0.00,  0.00000,  0.00000,  0.00000,  0.00000,1,   0.00,   1,1.0000,,,,,,,
     1,      3,'1 ',    0.12900E-01,    0.42400E-01,    0.10820E-01,  100.00,  110.00,    0.00,  0.00000,  0.00000,  0.00000,  0.00000,1,   0.00,   1,1.0000,,,,,,,
     2,     12,'1 ',    0.18700E-01,    0.61600E-01,    0.15720E-01,  100.00,  110.00,    0.00,  0.00000,  0.00000,  0.00000,  0.00000,1,   0.00,   1,1.0000,,,,,,,
     3,      5,'1 ',    0.24100E-01,    0.10800    ,    0.28400E-01,  100.00,  110.00,    0.00,  0.00000,  0.00000,  0.00000,  0.00000,1,   0.00,   1,1.0000,,,,,,,
     3,     12,'1 ',    0.48400E-01,    0.16000    ,    0.40600E-01,  100.00,  110.00,    0.00,  0.00000,  0.00000,  0.00000,  0.00000,1,   0.00,   1,1.0000,,,,,,,
     4,      5,'1 ',    0.17600E-02,    0.79800E-02,    0.21000E-02,  120.00,  130.00,    0.00,  0.00000,  0.00000,  0.00000,  0.00000,1,   0.00,   1,1.0000,,,,,,,
     4,     11,'1 ',    0.20900E-01,    0.68800E-01,    0.17480E-01,  100.00,  110.00,    0.00,  0.00000,  0.00000,  0.00000,  0.00000,1,   0.00,   1,1.0000,,,,,,,
     5,      6,'1 ',    0.11900E-01,    0.54000E-01,    0.14260E-01,  100.00,  110.00,    0.00,  0.00000,  0.00000,  0.00000,  0.00000,1,   0.00,   1,1.0000,,,,,,,
     5,     11,'1 ',    0.20300E-01,    0.68200E-01,    0.17380E-01,  100.00,  110.00,    0.00,  0.00000,  0.00000,  0.00000,  0.00000,1,   0.00,   1,1.0000,,,,,,,
     6,      7,'1 ',    0.45900E-02,    0.20800E-01,    0.55000E-02,  100.00,  110.00,    0.00,  0.00000,  0.00000,  0.00000,  0.00000,1,   0.00,   1,1.0000,,,,,,,
     7,     12,'1 ',    0.86200E-02,    0.34000E-01,    0.87400E-02,  100.00,  110.00,    0.00,  0.00000,  0.00000,  0.00000,  0.00000,1,   0.00,   1,1.0000,,,,,,,
     8,      9,'1 ',    0.24400E-02,    0.30500E-01,     1.1620    ,  500.00,  550.00,    0.00,  0.00000,  0.00000,  0.00000,  0.00000,1,   0.00,   1,1.0000,,,,,,,
     8,     30,'1 ',    0.43100E-02,    0.50400E-01,    0.51400    ,  100.00,  110.00,    0.00,  0.00000,  0.00000,  0.00000,  0.00000,1,   0.00,   1,1.0000,,,,,,,
     9,     10,'1 ',    0.25800E-02,    0.32200E-01,     1.2300    ,  500.00,  550.00,    0.00,  0.00000,  0.00000,  0.00000,  0.00000,1,   0.00,   1,1.0000,,,,,,,
    11,     12,'1 ',    0.59500E-02,    0.19600E-01,    0.50200E-02,  100.00,  110.00,    0.00,  0.00000,  0.00000,  0.00000,  0.00000,1,   0.00,   1,1.0000,,,,,,,
    11,     13,'1 ',    0.22250E-01,    0.73100E-01,    0.18760E-01,  100.00,  110.00,    0.00,  0.00000,  0.00000,  0.00000,  0.00000,1,   0.00,   1,1.0000,,,,,,,
    12,     14,'1 ',    0.21500E-01,    0.70700E-01,    0.18160E-01,  100.00,  110.00,    0.00,  0.00000,  0.00000,  0.00000,  0.00000,1,   0.00,   1,1.0000,,,,,,,
    12,     16,'1 ',    0.21200E-01,    0.83400E-01,    0.21400E-01,  100.00,  110.00,    0.00,  0.00000,  0.00000,  0.00000,  0.00000,1,   0.00,   1,1.0000,,,,,,,
    12,    117,'1 ',    0.32900E-01,    0.14000    ,    0.35800E-01,  100.00,  110.00,    0.00,  0.00000,  0.00000,  0.00000,  0.00000,1,   0.00,   1,1.0000,,,,,,,
    13,     15,'1 ',    0.74400E-01,    0.24440    ,    0.62680E-01,  100.00,  110.00,    0.00,  0.00000,  0.00000,  0.00000,  0.00000,1,   0.00,   1,1.0000,,,,,,,
    14,     15,'1 ',    0.59500E-01,    0.19500    ,    0.50200E-01,  100.00,  110.00,    0.00,  0.00000,  0.00000,  0.00000,  0.00000,1,   0.00,   1,1.0000,,,,,,,
    15,     17,'1 ',    0.13200E-01,    0.43700E-01,    0.44400E-01,  110.00,  120.00,    0.00,  0.00000,  0.00000,  0.00000,  0.00000,1,   0.00,   1,1.0000,,,,,,,
    15,     19,'1 ',    0.12000E-01,    0.39400E-01,    0.10100E-01,  100.00,  110.00,    0.00,  0.00000,  0.00000,  0.00000,  0.00000,1,   0.00,   1,1.0000,,,,,,,
    15,     33,'1 ',    0.38000E-01,    0.12440    ,    0.31940E-01,  100.00,  110.00,    0.00,  0.00000,  0.00000,  0.00000,  0.00000,1,   0.00,   1,1.0000,,,,,,,
    16,     17,'1 ',    0.45400E-01,    0.18010    ,    0.46600E-01,  100.00,  110.00,    0.00,  0.00000,  0.00000,  0.00000,  0.00000,1,   0.00,   1,1.0000,,,,,,,
    17,     18,'1 ',    0.12300E-01,    0.50500E-01,    0.12980E-01,  100.00,  110.00,    0.00,  0.00000,  0.00000,  0.00000,  0.00000,1,   0.00,   1,1.0000,,,,,,,
    17,     31,'1 ',    0.47400E-01,    0.15630    ,    0.39900E-01,  100.00,  110.00,    0.00,  0.00000,  0.00000,  0.00000,  0.00000,1,   0.00,   1,1.0000,,,,,,,
    17,    113,'1 ',    0.91300E-02,    0.30100E-01,    0.76800E-02,  100.00,  110.00,    0.00,  0.00000,  0.00000,  0.00000,  0.00000,1,   0.00,   1,1.0000,,,,,,,
    18,     19,'1 ',    0.11190E-01,    0.49300E-01,    0.11420E-01,  100.00,  110.00,    0.00,  0.00000,  0.00000,  0.00000,  0.00000,1,   0.00,   1,1.0000,,,,,,,
    19,     20,'1 ',    0.25200E-01,    0.11700    ,    0.29800E-01,  100.00,  110.00,    0.00,  0.00000,  0.00000,  0.00000,  0.00000,1,   0.00,   1,1.0000,,,,,,,
    19,     34,'1 ',    0.75200E-01,    0.24700    ,    0.63200E-01,  100.00,  110.00,    0.00,  0.00000,  0.00000,  0.00000,  0.00000,1,   0.00,   1,1.0000,,,,,,,
    20,     21,'1 ',    0.18300E-01,    0.84900E-01,    0.21600E-01,  100.00,  110.00,    0.00,  0.00000,  0.00000,  0.00000,  0.00000,1,   0.00,   1,1.0000,,,,,,,
    21,     22,'1 ',    0.20900E-01,    0.97000E-01,    0.24600E-01,  100.00,  110.00,    0.00,  0.00000,  0.00000,  0.00000,  0.00000,1,   0.00,   1,1.0000,,,,,,,
    22,     23,'1 ',    0.34200E-01,    0.15900    ,    0.40400E-01,  100.00,  110.00,    0.00,  0.00000,  0.00000,  0.00000,  0.00000,1,   0.00,   1,1.0000,,,,,,,
    23,     24,'1 ',    0.13500E-01,    0.49200E-01,    0.49800E-01,  100.00,  110.00,    0.00,  0.00000,  0.00000,  0.00000,  0.00000,1,   0.00,   1,1.0000,,,,,,,
    23,     25,'1 ',    0.15600E-01,    0.80000E-01,    0.86400E-01,  175.00,  200.00,    0.00,  0.00000,  0.00000,  0.00000,  0.00000,1,   0.00,   1,1.0000,,,,,,,
    23,     32,'1 ',    0.31700E-01,    0.11530    ,    0.11730    ,  100.00,  110.00,    0.00,  0.00000,  0.00000,  0.00000,  0.00000,1,   0.00,   1,1.0000,,,,,,,
    24,     70,'1 ',    0.22100E-02,    0.41150    ,    0.10198    ,  100.00,  110.00,    0.00,  0.00000,  0.00000,  0.00000,  0.00000,1,   0.00,   1,1.0000,,,,,,,
    24,     72,'1 ',    0.48800E-01,    0.19600    ,    0.48800E-01,  100.00,  110.00,    0.00,  0.00000,  0.00000,  0.00000,  0.00000,1,   0.00,   1,1.0000,,,,,,,
    25,     27,'1 ',    0.31800E-01,    0.16300    ,    0.17640    ,  160.00,  180.00,    0.00,  0.00000,  0.00000,  0.00000,  0.00000,1,   0.00,   1,1.0000,,,,,,,
    26,     30,'1 ',    0.79900E-02,    0.86000E-01,    0.90800    ,  230.00,  240.00,    0.00,  0.00000,  0.00000,  0.00000,  0.00000,1,   0.00,   1,1.0000,,,,,,,
    27,     28,'1 ',    0.19130E-01,    0.85500E-01,    0.21600E-01,  100.00,  110.00,    0.00,  0.00000,  0.00000,  0.00000,  0.00000,1,   0.00,   1,1.0000,,,,,,,
    27,     32,'1 ',    0.22900E-01,    0.75500E-01,    0.19260E-01,  100.00,  110.00,    0.00,  0.00000,  0.00000,  0.00000,  0.00000,1,   0.00,   1,1.0000,,,,,,,
    27,    115,'1 ',    0.16400E-01,    0.74100E-01,    0.19720E-01,  100.00,  110.00,    0.00,  0.00000,  0.00000,  0.00000,  0.00000,1,   0.00,   1,1.0000,,,,,,,
    28,     29,'1 ',    0.23700E-01,    0.94300E-01,    0.23800E-01,  100.00,  110.00,    0.00,  0.00000,  0.00000,  0.00000,  0.00000,1,   0.00,   1,1.0000,,,,,,,
    29,     31,'1 ',    0.10800E-01,    0.33100E-01,    0.83000E-02,  100.00,  110.00,    0.00,  0.00000,  0.00000,  0.00000,  0.00000,1,   0.00,   1,1.0000,,,,,,,
    30,     38,'1 ',    0.46400E-02,    0.54000E-01,    0.42200    ,  100.00,  110.00,    0.00,  0.00000,  0.00000,  0.00000,  0.00000,1,   0.00,   1,1.0000,,,,,,,
    31,     32,'1 ',    0.29800E-01,    0.98500E-01,    0.25100E-01,  100.00,  110.00,    0.00,  0.00000,  0.00000,  0.00000,  0.00000,1,   0.00,   1,1.0000,,,,,,,
    32,    113,'1 ',    0.61500E-01,    0.20300    ,    0.51800E-01,  100.00,  110.00,    0.00,  0.00000,  0.00000,  0.00000,  0.00000,1,   0.00,   1,1.0000,,,,,,,
    32,    114,'1 ',    0.13500E-01,    0.61200E-01,    0.16280E-01,  100.00,  110.00,    0.00,  0.00000,  0.00000,  0.00000,  0.00000,1,   0.00,   1,1.0000,,,,,,,
    33,     37,'1 ',    0.41500E-01,    0.14200    ,    0.36600E-01,  100.00,  110.00,    0.00,  0.00000,  0.00000,  0.00000,  0.00000,1,   0.00,   1,1.0000,,,,,,,
    34,     36,'1 ',    0.87100E-02,    0.26800E-01,    0.56800E-02,  110.00,  120.00,    0.00,  0.00000,  0.00000,  0.00000,  0.00000,1,   0.00,   1,1.0000,,,,,,,
    34,     37,'1 ',    0.25600E-02,    0.94000E-02,    0.98400E-02,  110.00,  120.00,    0.00,  0.00000,  0.00000,  0.00000,  0.00000,1,   0.00,   1,1.0000,,,,,,,
    34,     43,'1 ',    0.41300E-01,    0.16810    ,    0.42260E-01,  100.00,  110.00,    0.00,  0.00000,  0.00000,  0.00000,  0.00000,1,   0.00,   1,1.0000,,,,,,,
    35,     36,'1 ',    0.22400E-02,    0.10200E-01,    0.26800E-02,  100.00,  110.00,    0.00,  0.00000,  0.00000,  0.00000,  0.00000,1,   0.00,   1,1.0000,,,,,,,
    35,     37,'1 ',    0.11000E-01,    0.49700E-01,    0.13180E-01,  100.00,  110.00,    0.00,  0.00000,  0.00000,  0.00000,  0.00000,1,   0.00,   1,1.0000,,,,,,,
    37,     39,'1 ',    0.32100E-01,    0.10600    ,    0.27000E-01,  100.00,  110.00,    0.00,  0.00000,  0.00000,  0.00000,  0.00000,1,   0.00,   1,1.0000,,,,,,,
    37,     40,'1 ',    0.59300E-01,    0.16800    ,    0.42000E-01,  100.00,  110.00,    0.00,  0.00000,  0.00000,  0.00000,  0.00000,1,   0.00,   1,1.0000,,,,,,,
    38,     65,'1 ',    0.90100E-02,    0.98600E-01,     1.0460    ,  200.00,  220.00,    0.00,  0.00000,  0.00000,  0.00000,  0.00000,1,   0.00,   1,1.0000,,,,,,,
    39,     40,'1 ',    0.18400E-01,    0.60500E-01,    0.15520E-01,  100.00,  110.00,    0.00,  0.00000,  0.00000,  0.00000,  0.00000,1,   0.00,   1,1.0000,,,,,,,
    40,     41,'1 ',    0.14500E-01,    0.48700E-01,    0.12220E-01,  100.00,  110.00,    0.00,  0.00000,  0.00000,  0.00000,  0.00000,1,   0.00,   1,1.0000,,,,,,,
    40,     42,'1 ',    0.55500E-01,    0.18300    ,    0.46600E-01,  100.00,  110.00,    0.00,  0.00000,  0.00000,  0.00000,  0.00000,1,   0.00,   1,1.0000,,,,,,,
    41,     42,'1 ',    0.41000E-01,    0.13500    ,    0.34400E-01,  100.00,  110.00,    0.00,  0.00000,  0.00000,  0.00000,  0.00000,1,   0.00,   1,1.0000,,,,,,,
    42,     49,'1 ',    0.35800E-01,    0.16150    ,    0.17200    ,  140.00,  150.00,    0.00,  0.00000,  0.00000,  0.00000,  0.00000,1,   0.00,   1,1.0000,,,,,,,
    43,     44,'1 ',    0.60800E-01,    0.24540    ,    0.60680E-01,  100.00,  110.00,    0.00,  0.00000,  0.00000,  0.00000,  0.00000,1,   0.00,   1,1.0000,,,,,,,
    44,     45,'1 ',    0.22400E-01,    0.90100E-01,    0.22400E-01,  100.00,  110.00,    0.00,  0.00000,  0.00000,  0.00000,  0.00000,1,   0.00,   1,1.0000,,,,,,,
    45,     46,'1 ',    0.40000E-01,    0.13560    ,    0.33200E-01,  100.00,  110.00,    0.00,  0.00000,  0.00000,  0.00000,  0.00000,1,   0.00,   1,1.0000,,,,,,,
    45,     49,'1 ',    0.68400E-01,    0.18600    ,    0.44400E-01,  100.00,  110.00,    0.00,  0.00000,  0.00000,  0.00000,  0.00000,1,   0.00,   1,1.0000,,,,,,,
    46,     47,'1 ',    0.38000E-01,    0.12700    ,    0.31600E-01,  100.00,  110.00,    0.00,  0.00000,  0.00000,  0.00000,  0.00000,1,   0.00,   1,1.0000,,,,,,,
    46,     48,'1 ',    0.60100E-01,    0.18900    ,    0.47200E-01,  100.00,  110.00,    0.00,  0.00000,  0.00000,  0.00000,  0.00000,1,   0.00,   1,1.0000,,,,,,,
    47,     49,'1 ',    0.19100E-01,    0.62500E-01,    0.16040E-01,  100.00,  110.00,    0.00,  0.00000,  0.00000,  0.00000,  0.00000,1,   0.00,   1,1.0000,,,,,,,
    47,     69,'1 ',    0.84400E-01,    0.27780    ,    0.70920E-01,  100.00,  110.00,    0.00,  0.00000,  0.00000,  0.00000,  0.00000,1,   0.00,   1,1.0000,,,,,,,
    48,     49,'1 ',    0.17900E-01,    0.50500E-01,    0.12580E-01,  100.00,  110.00,    0.00,  0.00000,  0.00000,  0.00000,  0.00000,1,   0.00,   1,1.0000,,,,,,,
    49,     50,'1 ',    0.26700E-01,    0.75200E-01,    0.18740E-01,  100.00,  110.00,    0.00,  0.00000,  0.00000,  0.00000,  0.00000,1,   0.00,   1,1.0000,,,,,,,
    49,     51,'1 ',    0.48600E-01,    0.13700    ,    0.34200E-01,  100.00,  110.00,    0.00,  0.00000,  0.00000,  0.00000,  0.00000,1,   0.00,   1,1.0000,,,,,,,
    49,     54,'1 ',    0.39700E-01,    0.14500    ,    0.14760    ,  100.00,  110.00,    0.00,  0.00000,  0.00000,  0.00000,  0.00000,1,   0.00,   1,1.0000,,,,,,,
    49,     66,'1 ',    0.90000E-02,    0.46000E-01,    0.49600E-01,  275.00,  300.00,    0.00,  0.00000,  0.00000,  0.00000,  0.00000,1,   0.00,   1,1.0000,,,,,,,
    49,     69,'1 ',    0.98500E-01,    0.32400    ,    0.82800E-01,  100.00,  110.00,    0.00,  0.00000,  0.00000,  0.00000,  0.00000,1,   0.00,   1,1.0000,,,,,,,
    50,     57,'1 ',    0.47400E-01,    0.13400    ,    0.33200E-01,  100.00,  110.00,    0.00,  0.00000,  0.00000,  0.00000,  0.00000,1,   0.00,   1,1.0000,,,,,,,
    51,     52,'1 ',    0.20300E-01,    0.58800E-01,    0.13960E-01,  100.00,  110.00,    0.00,  0.00000,  0.00000,  0.00000,  0.00000,1,   0.00,   1,1.0000,,,,,,,
    51,     58,'1 ',    0.25500E-01,    0.71900E-01,    0.17880E-01,  100.00,  110.00,    0.00,  0.00000,  0.00000,  0.00000,  0.00000,1,   0.00,   1,1.0000,,,,,,,
    52,     53,'1 ',    0.40500E-01,    0.16350    ,    0.40580E-01,  100.00,  110.00,    0.00,  0.00000,  0.00000,  0.00000,  0.00000,1,   0.00,   1,1.0000,,,,,,,
    53,     54,'1 ',    0.26300E-01,    0.12200    ,    0.31000E-01,  100.00,  110.00,    0.00,  0.00000,  0.00000,  0.00000,  0.00000,1,   0.00,   1,1.0000,,,,,,,
    54,     55,'1 ',    0.16900E-01,    0.70700E-01,    0.20200E-01,  100.00,  110.00,    0.00,  0.00000,  0.00000,  0.00000,  0.00000,1,   0.00,   1,1.0000,,,,,,,
    54,     56,'1 ',    0.27500E-02,    0.95500E-02,    0.73200E-02,  100.00,  110.00,    0.00,  0.00000,  0.00000,  0.00000,  0.00000,1,   0.00,   1,1.0000,,,,,,,
    54,     59,'1 ',    0.50300E-01,    0.22930    ,    0.59800E-01,  100.00,  110.00,    0.00,  0.00000,  0.00000,  0.00000,  0.00000,1,   0.00,   1,1.0000,,,,,,,
    55,     56,'1 ',    0.48800E-02,    0.15100E-01,    0.37400E-02,  100.00,  110.00,    0.00,  0.00000,  0.00000,  0.00000,  0.00000,1,   0.00,   1,1.0000,,,,,,,
    55,     59,'1 ',    0.47390E-01,    0.21580    ,    0.56460E-01,  100.00,  110.00,    0.00,  0.00000,  0.00000,  0.00000,  0.00000,1,   0.00,   1,1.0000,,,,,,,
    56,     57,'1 ',    0.34300E-01,    0.96600E-01,    0.24200E-01,  100.00,  110.00,    0.00,  0.00000,  0.00000,  0.00000,  0.00000,1,   0.00,   1,1.0000,,,,,,,
    56,     58,'1 ',    0.34300E-01,    0.96600E-01,    0.24200E-01,  100.00,  110.00,    0.00,  0.00000,  0.00000,  0.00000,  0.00000,1,   0.00,   1,1.0000,,,,,,,
    56,     59,'1 ',    0.21900E-01,    0.78100E-01,    0.15696    ,  100.00,  110.00,    0.00,  0.00000,  0.00000,  0.00000,  0.00000,1,   0.00,   1,1.0000,,,,,,,
    59,     60,'1 ',    0.31700E-01,    0.14500    ,    0.37600E-01,  100.00,  110.00,    0.00,  0.00000,  0.00000,  0.00000,  0.00000,1,   0.00,   1,1.0000,,,,,,,
    59,     61,'1 ',    0.32800E-01,    0.15000    ,    0.38800E-01,  100.00,  110.00,    0.00,  0.00000,  0.00000,  0.00000,  0.00000,1,   0.00,   1,1.0000,,,,,,,
    60,     61,'1 ',    0.26400E-02,    0.13500E-01,    0.14560E-01,  120.00,  130.00,    0.00,  0.00000,  0.00000,  0.00000,  0.00000,1,   0.00,   1,1.0000,,,,,,,
    60,     62,'1 ',    0.12300E-01,    0.56100E-01,    0.14680E-01,  100.00,  110.00,    0.00,  0.00000,  0.00000,  0.00000,  0.00000,1,   0.00,   1,1.0000,,,,,,,
    61,     62,'1 ',    0.82400E-02,    0.37600E-01,    0.98000E-02,  100.00,  110.00,    0.00,  0.00000,  0.00000,  0.00000,  0.00000,1,   0.00,   1,1.0000,,,,,,,
    62,     66,'1 ',    0.48200E-01,    0.21800    ,    0.57800E-01,  100.00,  110.00,    0.00,  0.00000,  0.00000,  0.00000,  0.00000,1,   0.00,   1,1.0000,,,,,,,
    62,     67,'1 ',    0.25800E-01,    0.11700    ,    0.31000E-01,  100.00,  110.00,    0.00,  0.00000,  0.00000,  0.00000,  0.00000,1,   0.00,   1,1.0000,,,,,,,
    63,     64,'1 ',    0.17200E-02,    0.20000E-01,    0.21600    ,  170.00,  190.00,    0.00,  0.00000,  0.00000,  0.00000,  0.00000,1,   0.00,   1,1.0000,,,,,,,
    64,     65,'1 ',    0.26900E-02,    0.30200E-01,    0.38000    ,  200.00,  220.00,    0.00,  0.00000,  0.00000,  0.00000,  0.00000,1,   0.00,   1,1.0000,,,,,,,
    65,     68,'1 ',    0.13800E-02,    0.16000E-01,    0.63800    ,  100.00,  110.00,    0.00,  0.00000,  0.00000,  0.00000,  0.00000,1,   0.00,   1,1.0000,,,,,,,
    66,     67,'1 ',    0.22400E-01,    0.10150    ,    0.26820E-01,  100.00,  110.00,    0.00,  0.00000,  0.00000,  0.00000,  0.00000,1,   0.00,   1,1.0000,,,,,,,
    68,     81,'1 ',    0.17500E-02,    0.20200E-01,    0.80800    ,  100.00,  110.00,    0.00,  0.00000,  0.00000,  0.00000,  0.00000,1,   0.00,   1,1.0000,,,,,,,
    68,    116,'1 ',    0.34000E-03,    0.40500E-02,    0.16400    ,  220.00,  240.00,    0.00,  0.00000,  0.00000,  0.00000,  0.00000,1,   0.00,   1,1.0000,,,,,,,
    69,     70,'1 ',    0.30000E-01,    0.12700    ,    0.12200    ,  120.00,  130.00,    0.00,  0.00000,  0.00000,  0.00000,  0.00000,1,   0.00,   1,1.0000,,,,,,,
    69,     75,'1 ',    0.40500E-01,    0.12200    ,    0.12400    ,  120.00,  130.00,    0.00,  0.00000,  0.00000,  0.00000,  0.00000,1,   0.00,   1,1.0000,,,,,,,
    69,     77,'1 ',    0.30900E-01,    0.10100    ,    0.10380    ,  100.00,  110.00,    0.00,  0.00000,  0.00000,  0.00000,  0.00000,1,   0.00,   1,1.0000,,,,,,,
    70,     71,'1 ',    0.88200E-02,    0.35500E-01,    0.87800E-02,  100.00,  110.00,    0.00,  0.00000,  0.00000,  0.00000,  0.00000,1,   0.00,   1,1.0000,,,,,,,
    70,     74,'1 ',    0.40100E-01,    0.13230    ,    0.33680E-01,  100.00,  110.00,    0.00,  0.00000,  0.00000,  0.00000,  0.00000,1,   0.00,   1,1.0000,,,,,,,
    70,     75,'1 ',    0.42800E-01,    0.14100    ,    0.36000E-01,  100.00,  110.00,    0.00,  0.00000,  0.00000,  0.00000,  0.00000,1,   0.00,   1,1.0000,,,,,,,
    71,     72,'1 ',    0.44600E-01,    0.18000    ,    0.44440E-01,  100.00,  110.00,    0.00,  0.00000,  0.00000,  0.00000,  0.00000,1,   0.00,   1,1.0000,,,,,,,
    71,     73,'1 ',    0.86600E-02,    0.45400E-01,    0.11780E-01,  100.00,  110.00,    0.00,  0.00000,  0.00000,  0.00000,  0.00000,1,   0.00,   1,1.0000,,,,,,,
    74,     75,'1 ',    0.12300E-01,    0.40600E-01,    0.10340E-01,  100.00,  110.00,    0.00,  0.00000,  0.00000,  0.00000,  0.00000,1,   0.00,   1,1.0000,,,,,,,
    75,     77,'1 ',    0.60100E-01,    0.19990    ,    0.49780E-01,  165.00,  175.00,    0.00,  0.00000,  0.00000,  0.00000,  0.00000,1,   0.00,   1,1.0000,,,,,,,
    75,    118,'1 ',    0.14500E-01,    0.48100E-01,    0.11980E-01,  100.00,  110.00,    0.00,  0.00000,  0.00000,  0.00000,  0.00000,1,   0.00,   1,1.0000,,,,,,,
    76,     77,'1 ',    0.44400E-01,    0.14800    ,    0.36800E-01,  100.00,  110.00,    0.00,  0.00000,  0.00000,  0.00000,  0.00000,1,   0.00,   1,1.0000,,,,,,,
    76,    118,'1 ',    0.16400E-01,    0.54400E-01,    0.13560E-01,  100.00,  110.00,    0.00,  0.00000,  0.00000,  0.00000,  0.00000,1,   0.00,   1,1.0000,,,,,,,
    77,     78,'1 ',    0.37600E-02,    0.12400E-01,    0.12640E-01,  100.00,  110.00,    0.00,  0.00000,  0.00000,  0.00000,  0.00000,1,   0.00,   1,1.0000,,,,,,,
    77,     80,'1 ',    0.10800E-01,    0.33200E-01,    0.70000E-01,  165.00,  175.00,    0.00,  0.00000,  0.00000,  0.00000,  0.00000,1,   0.00,   1,1.0000,,,,,,,
    77,     82,'1 ',    0.29800E-01,    0.85300E-01,    0.81740E-01,  100.00,  110.00,    0.00,  0.00000,  0.00000,  0.00000,  0.00000,1,   0.00,   1,1.0000,,,,,,,
    78,     79,'1 ',    0.54600E-02,    0.24400E-01,    0.64800E-02,  100.00,  110.00,    0.00,  0.00000,  0.00000,  0.00000,  0.00000,1,   0.00,   1,1.0000,,,,,,,
    79,     80,'1 ',    0.15600E-01,    0.70400E-01,    0.18700E-01,  100.00,  110.00,    0.00,  0.00000,  0.00000,  0.00000,  0.00000,1,   0.00,   1,1.0000,,,,,,,
    80,     96,'1 ',    0.35600E-01,    0.18200    ,    0.49400E-01,  100.00,  110.00,    0.00,  0.00000,  0.00000,  0.00000,  0.00000,1,   0.00,   1,1.0000,,,,,,,
    80,     97,'1 ',    0.18300E-01,    0.93400E-01,    0.25400E-01,  100.00,  110.00,    0.00,  0.00000,  0.00000,  0.00000,  0.00000,1,   0.00,   1,1.0000,,,,,,,
    80,     98,'1 ',    0.23800E-01,    0.10800    ,    0.28600E-01,  100.00,  110.00,    0.00,  0.00000,  0.00000,  0.00000,  0.00000,1,   0.00,   1,1.0000,,,,,,,
    80,     99,'1 ',    0.45400E-01,    0.20600    ,    0.54600E-01,  100.00,  110.00,    0.00,  0.00000,  0.00000,  0.00000,  0.00000,1,   0.00,   1,1.0000,,,,,,,
    82,     83,'1 ',    0.11200E-01,    0.36650E-01,    0.37960E-01,  100.00,  110.00,    0.00,  0.00000,  0.00000,  0.00000,  0.00000,1,   0.00,   1,1.0000,,,,,,,
    82,     96,'1 ',    0.16200E-01,    0.53000E-01,    0.54400E-01,  100.00,  110.00,    0.00,  0.00000,  0.00000,  0.00000,  0.00000,1,   0.00,   1,1.0000,,,,,,,
    83,     84,'1 ',    0.62500E-01,    0.13200    ,    0.25800E-01,  100.00,  110.00,    0.00,  0.00000,  0.00000,  0.00000,  0.00000,1,   0.00,   1,1.0000,,,,,,,
    83,     85,'1 ',    0.43000E-01,    0.14800    ,    0.34800E-01,  100.00,  110.00,    0.00,  0.00000,  0.00000,  0.00000,  0.00000,1,   0.00,   1,1.0000,,,,,,,
    84,     85,'1 ',    0.30200E-01,    0.64100E-01,    0.12340E-01,  100.00,  110.00,    0.00,  0.00000,  0.00000,  0.00000,  0.00000,1,   0.00,   1,1.0000,,,,,,,
    85,     86,'1 ',    0.35000E-01,    0.12300    ,    0.27600E-01,  100.00,  110.00,    0.00,  0.00000,  0.00000,  0.00000,  0.00000,1,   0.00,   1,1.0000,,,,,,,
    85,     88,'1 ',    0.20000E-01,    0.10200    ,    0.27600E-01,  100.00,  110.00,    0.00,  0.00000,  0.00000,  0.00000,  0.00000,1,   0.00,   1,1.0000,,,,,,,
    85,     89,'1 ',    0.23900E-01,    0.17300    ,    0.47000E-01,  100.00,  110.00,    0.00,  0.00000,  0.00000,  0.00000,  0.00000,1,   0.00,   1,1.0000,,,,,,,
    86,     87,'1 ',    0.28280E-01,    0.20740    ,    0.44500E-01,  100.00,  110.00,    0.00,  0.00000,  0.00000,  0.00000,  0.00000,1,   0.00,   1,1.0000,,,,,,,
    88,     89,'1 ',    0.13900E-01,    0.71200E-01,    0.19340E-01,  100.00,  110.00,    0.00,  0.00000,  0.00000,  0.00000,  0.00000,1,   0.00,   1,1.0000,,,,,,,
    89,     90,'1 ',    0.16300E-01,    0.65100E-01,    0.15900    ,  175.00,  200.00,    0.00,  0.00000,  0.00000,  0.00000,  0.00000,1,   0.00,   1,1.0000,,,,,,,
    89,     92,'1 ',    0.79000E-02,    0.38300E-01,    0.96200E-01,  280.00,  300.00,    0.00,  0.00000,  0.00000,  0.00000,  0.00000,1,   0.00,   1,1.0000,,,,,,,
    90,     91,'1 ',    0.25400E-01,    0.83600E-01,    0.21400E-01,  100.00,  110.00,    0.00,  0.00000,  0.00000,  0.00000,  0.00000,1,   0.00,   1,1.0000,,,,,,,
    91,     92,'1 ',    0.38700E-01,    0.12720    ,    0.32680E-01,  100.00,  110.00,    0.00,  0.00000,  0.00000,  0.00000,  0.00000,1,   0.00,   1,1.0000,,,,,,,
    92,     93,'1 ',    0.25800E-01,    0.84800E-01,    0.21800E-01,  100.00,  110.00,    0.00,  0.00000,  0.00000,  0.00000,  0.00000,1,   0.00,   1,1.0000,,,,,,,
    92,     94,'1 ',    0.48100E-01,    0.15800    ,    0.40600E-01,  100.00,  110.00,    0.00,  0.00000,  0.00000,  0.00000,  0.00000,1,   0.00,   1,1.0000,,,,,,,
    92,    100,'1 ',    0.64800E-01,    0.29500    ,    0.77200E-01,  100.00,  110.00,    0.00,  0.00000,  0.00000,  0.00000,  0.00000,1,   0.00,   1,1.0000,,,,,,,
    92,    102,'1 ',    0.12300E-01,    0.55900E-01,    0.14640E-01,  100.00,  110.00,    0.00,  0.00000,  0.00000,  0.00000,  0.00000,1,   0.00,   1,1.0000,,,,,,,
    93,     94,'1 ',    0.22300E-01,    0.73200E-01,    0.18760E-01,  100.00,  110.00,    0.00,  0.00000,  0.00000,  0.00000,  0.00000,1,   0.00,   1,1.0000,,,,,,,
    94,     95,'1 ',    0.13200E-01,    0.43400E-01,    0.11100E-01,  100.00,  110.00,    0.00,  0.00000,  0.00000,  0.00000,  0.00000,1,   0.00,   1,1.0000,,,,,,,
    94,     96,'1 ',    0.26900E-01,    0.86900E-01,    0.23000E-01,  100.00,  110.00,    0.00,  0.00000,  0.00000,  0.00000,  0.00000,1,   0.00,   1,1.0000,,,,,,,
    94,    100,'1 ',    0.17800E-01,    0.58000E-01,    0.60400E-01,  100.00,  110.00,    0.00,  0.00000,  0.00000,  0.00000,  0.00000,1,   0.00,   1,1.0000,,,,,,,
    95,     96,'1 ',    0.17100E-01,    0.54700E-01,    0.14740E-01,  100.00,  110.00,    0.00,  0.00000,  0.00000,  0.00000,  0.00000,1,   0.00,   1,1.0000,,,,,,,
    96,     97,'1 ',    0.17300E-01,    0.88500E-01,    0.24000E-01,  100.00,  110.00,    0.00,  0.00000,  0.00000,  0.00000,  0.00000,1,   0.00,   1,1.0000,,,,,,,
    98,    100,'1 ',    0.39700E-01,    0.17900    ,    0.47600E-01,  100.00,  110.00,    0.00,  0.00000,  0.00000,  0.00000,  0.00000,1,   0.00,   1,1.0000,,,,,,,
    99,    100,'1 ',    0.18000E-01,    0.81300E-01,    0.21600E-01,  100.00,  110.00,    0.00,  0.00000,  0.00000,  0.00000,  0.00000,1,   0.00,   1,1.0000,,,,,,,
   100,    101,'1 ',    0.27700E-01,    0.12620    ,    0.32800E-01,  100.00,  110.00,    0.00,  0.00000,  0.00000,  0.00000,  0.00000,1,   0.00,   1,1.0000,,,,,,,
   100,    103,'1 ',    0.16000E-01,    0.52500E-01,    0.53600E-01,  130.00,  150.00,    0.00,  0.00000,  0.00000,  0.00000,  0.00000,1,   0.00,   1,1.0000,,,,,,,
   100,    104,'1 ',    0.45100E-01,    0.20400    ,    0.54100E-01,  100.00,  110.00,    0.00,  0.00000,  0.00000,  0.00000,  0.00000,1,   0.00,   1,1.0000,,,,,,,
   100,    106,'1 ',    0.60500E-01,    0.22900    ,    0.62000E-01,  100.00,  110.00,    0.00,  0.00000,  0.00000,  0.00000,  0.00000,1,   0.00,   1,1.0000,,,,,,,
   101,    102,'1 ',    0.24600E-01,    0.11200    ,    0.29400E-01,  100.00,  110.00,    0.00,  0.00000,  0.00000,  0.00000,  0.00000,1,   0.00,   1,1.0000,,,,,,,
   103,    104,'1 ',    0.46600E-01,    0.15840    ,    0.40700E-01,  100.00,  110.00,    0.00,  0.00000,  0.00000,  0.00000,  0.00000,1,   0.00,   1,1.0000,,,,,,,
   103,    105,'1 ',    0.53500E-01,    0.16250    ,    0.40800E-01,  100.00,  110.00,    0.00,  0.00000,  0.00000,  0.00000,  0.00000,1,   0.00,   1,1.0000,,,,,,,
   103,    110,'1 ',    0.39060E-01,    0.18130    ,    0.46100E-01,  100.00,  110.00,    0.00,  0.00000,  0.00000,  0.00000,  0.00000,1,   0.00,   1,1.0000,,,,,,,
   104,    105,'1 ',    0.99400E-02,    0.37800E-01,    0.98600E-02,  100.00,  110.00,    0.00,  0.00000,  0.00000,  0.00000,  0.00000,1,   0.00,   1,1.0000,,,,,,,
   105,    106,'1 ',    0.14000E-01,    0.54700E-01,    0.14340E-01,  100.00,  110.00,    0.00,  0.00000,  0.00000,  0.00000,  0.00000,1,   0.00,   1,1.0000,,,,,,,
   105,    107,'1 ',    0.53000E-01,    0.18300    ,    0.47200E-01,  100.00,  110.00,    0.00,  0.00000,  0.00000,  0.00000,  0.00000,1,   0.00,   1,1.0000,,,,,,,
   105,    108,'1 ',    0.26100E-01,    0.70300E-01,    0.18440E-01,  100.00,  110.00,    0.00,  0.00000,  0.00000,  0.00000,  0.00000,1,   0.00,   1,1.0000,,,,,,,
   106,    107,'1 ',    0.53000E-01,    0.18300    ,    0.47200E-01,  100.00,  110.00,    0.00,  0.00000,  0.00000,  0.00000,  0.00000,1,   0.00,   1,1.0000,,,,,,,
   108,    109,'1 ',    0.10500E-01,    0.28800E-01,    0.76000E-02,  100.00,  110.00,    0.00,  0.00000,  0.00000,  0.00000,  0.00000,1,   0.00,   1,1.0000,,,,,,,
   109,    110,'1 ',    0.27800E-01,    0.76200E-01,    0.20200E-01,  100.00,  110.00,    0.00,  0.00000,  0.00000,  0.00000,  0.00000,1,   0.00,   1,1.0000,,,,,,,
   110,    111,'1 ',    0.22000E-01,    0.75500E-01,    0.20000E-01,  100.00,  110.00,    0.00,  0.00000,  0.00000,  0.00000,  0.00000,1,   0.00,   1,1.0000,,,,,,,
   110,    112,'1 ',    0.24700E-01,    0.64000E-01,    0.62000E-01,  100.00,  110.00,    0.00,  0.00000,  0.00000,  0.00000,  0.00000,1,   0.00,   1,1.0000,,,,,,,
   114,    115,'1 ',    0.23000E-02,    0.10400E-01,    0.27600E-02,  100.00,  110.00,    0.00,  0.00000,  0.00000,  0.00000,  0.00000,1,   0.00,   1,1.0000,,,,,,,
0 / END OF BRANCH DATA, BEGIN TRANSFORMER DATA
     8,     5, 0,'1 ',1,1,1,   0.00000,   0.00000, 2,'', 1,   1,1.0000,,,,,,,
   0.00000,   0.02670
0.98500, 0,   0.000,  100.00,  110.00,    0.00, 0, 0, 1.1, 0.9, 1.1, 0.9, 33, 0, 0.0, 0.0
 1., 0.
    30,    17, 0,'1 ',1,1,1,   0.00000,   0.00000, 2,'', 1,   1,1.0000,,,,,,,
   0.00000,   0.03880
0.96000, 0,   0.000,  100.00,  110.00,    0.00, 0, 0, 1.1, 0.9, 1.1, 0.9, 33, 0, 0.0, 0.0
 1., 0.
    26,    25, 0,'1 ',1,1,1,   0.00000,   0.00000, 2,'', 1,   1,1.0000,,,,,,,
   0.00000,   0.03820
0.96000, 0,   0.000,  100.00,  110.00,    0.00, 0, 0, 1.1, 0.9, 1.1, 0.9, 33, 0, 0.0, 0.0
 1., 0.
    38,    37, 0,'1 ',1,1,1,   0.00000,   0.00000, 2,'', 1,   1,1.0000,,,,,,,
   0.00000,   0.03750
0.93500, 0,   0.000,  100.00,  110.00,    0.00, 0, 0, 1.1, 0.9, 1.1, 0.9, 33, 0, 0.0, 0.0
 1., 0.
    63,    59, 0,'1 ',1,1,1,   0.00000,   0.00000, 2,'', 1,   1,1.0000,,,,,,,
   0.00000,   0.03860
0.96000, 0,   0.000,  100.00,  110.00,    0.00, 0, 0, 1.1, 0.9, 1.1, 0.9, 33, 0, 0.0, 0.0
 1., 0.
    64,    61, 0,'1 ',1,1,1,   0.00000,   0.00000, 2,'', 1,   1,1.0000,,,,,,,
   0.00000,   0.02680
0.98500, 0,   0.000,  100.00,  110.00,    0.00, 0, 0, 1.1, 0.9, 1.1, 0.9, 33, 0, 0.0, 0.0
 1., 0.
    65,    66, 0,'1 ',1,1,1,   0.00000,   0.00000, 2,'', 1,   1,1.0000,,,,,,,
   0.00000,   0.03700
0.93500, 0,   0.000,  100.00,  110.00,    0.00, 0, 0, 1.1, 0.9, 1.1, 0.9, 33, 0, 0.0, 0.0
 1., 0.
    68,    69, 0,'1 ',1,1,1,   0.00000,   0.00000, 2,'', 1,   1,1.0000,,,,,,,
   0.00000,   0.03700
0.93500, 0,   0.000,  100.00,  110.00,    0.00, 0, 0, 1.1, 0.9, 1.1, 0.9, 33, 0, 0.0, 0.0
 1., 0.
    81,    80, 0,'1 ',1,1,1,   0.00000,   0.00000, 2,'', 1,   1,1.0000,,,,,,,
   0.00000,   0.03700
0.93500, 0,   0.000,  100.00,  110.00,    0.00, 0, 0, 1.1, 0.9, 1.1, 0.9, 33, 0, 0.0, 0.0
 1., 0.
0 / END OF TRANSFORMER DATA, BEGIN AREA DATA
    1,    69,     0.00,    10.00,'Our Util'
0 / END OF AREA DATA, BEGIN TWO-TERMINAL DC DATA
0 / END OF TWO-TERMINAL DC DATA, BEGIN VSC DC LINE DATA
...